# DRN package for  MODFLOW-NWT, generated by Flopy.
      4674        30 noprint
      4674         0 # stress period 1
         1        33        45        449.4956       161.72989
         1        33        46        439.0776       162.11787
         1        33        47        432.9317        98.07561
         1        34        47       421.33078        52.19142
         1        34        48        416.3026       133.69849
         1        34        49        406.2995       170.26703
         1        34        50        400.0661       158.97253
         1        34        51       399.61945       61.813747
         1        35        51        398.0186       120.71833
         1        35        52        391.3795       158.52347
         1        36        52       385.00446        36.99839
         1        36        53       380.86554       117.83296
         1        37        53       380.21054        32.52366
         1        37        52       380.02228        93.97125
         1        37        53       379.39932        57.69307
         1        38        53       376.79395       144.88225
         1        39        53       367.54007       148.88225
         1        40        53         360.638         50.4126
         1        40        54       360.23538      101.783356
         1        41        54        359.6804       36.265015
         1        38        47       463.98703        143.2254
         1        38        48       440.63898       52.813747
         1        39        48       427.42984       101.03907
         1        39        49       414.62256        81.81815
         1        38        49         400.751        54.27987
         1        39        49       398.61392        9.321364
         1        39        50       393.67807       139.37456
         1        39        51       383.54187       141.56854
         1        39        52       374.07843        140.0346
         1        39        53       368.45456        37.10504
         1        40        53        362.2265       168.18092
         1        41        54       359.86813       37.941124
         1        40        47        442.9375       132.33293
         1        40        48       425.82928       141.56854
         1        40        49       405.17435        133.8214
         1        40        50       396.01758       94.761894
         1        41        50       390.18002       45.564007
         1        41        51       379.73526       150.55832
         1        41        52       371.50992       154.66202
         1        41        53       363.30862       136.47507
         1        41        54       359.44827        90.34992
         1        42        54       358.77026       47.265015
         1        46        48        476.3139       76.581024
         1        46        49       440.69666       168.33107
         1        46        50       414.96567       27.649199
         1        47        50       399.43707       123.32334
         1        47        51        383.6382        143.2254
         1        47        52       369.88007      125.445564
         1        46        52       362.42776        42.18702
         1        46        53        359.6194       137.01219
         1        46        54       355.07526       141.03142
         1        46        55       350.13614        95.32049
         1        47        55       346.29852       155.80412
         1        48        56        341.2007       145.82338
         1        52        51        426.6191       156.26028
         1        52        52        390.9947       140.20299
         1        52        53        375.7455       144.88225
         1        52        54       359.40866       134.94113
         1        52        55         356.537        58.98532
         1        53        55       350.54718        97.20361
         1        53        56       343.50012       138.54613
         1        53        57        339.9797       135.47826
         1        53        58       335.67844       144.34512
         1        53        59       331.08334       128.89922
         1        14        42        549.4911       141.56854
         1        14        43       531.34924        62.50004
         1        15        43        516.5336        90.37519
         1        15        44       499.06808       135.23242
         1        15        45       486.34344       160.55606
         1        16        46       469.62488       205.13708
         1        17        47       459.53745       148.54456
         1        17        48       454.76474        97.89606
         1        18        48        442.7498       138.25484
         1        19        48       427.88098       128.20613
         1        22        42        533.9057       124.75392
         1        23        42        517.8065       136.59798
         1        24        42       497.96555       134.94113
         1        25        42       479.71527       117.23557
         1        18        41       609.07477        35.69083
         1        19        42       535.25507       61.198524
         1        20        42        518.4314       103.28171
         1        20        43       498.92227        143.2254
         1        20        44       475.48672       159.79395
         1        20        45       461.98755       14.357903
         1        21        45        460.6774       25.318111
         1        20        45        451.4943        142.3119
         1        20        46        439.4585       144.34512
         1        20        47       435.71426       123.26959
         1        21        47        437.6617       25.318111
         1        20        47       437.05762       96.856064
         1        20        48       430.28378       86.950066
         1        19        48       423.16498       28.554148
         1        38        55       379.33688       170.20844
         1        38        56       375.41354       126.65685
         1        38        57        373.2087       47.529476
         1        39        57         374.784       113.20361
         1        39        58       378.45804        71.00454
         1        40        58       368.88663       148.31793
         1        41        58       359.95535       142.20613
         1        42        59        358.8899       155.30646
         1        43        59       357.47372       137.01219
         1        44        59       357.32846        67.70614
         1        44        60        357.7421        70.67066
         1        45        60       354.21008       127.36332
         1        46        60       349.77515       102.84282
         1        43        57       359.19174        64.67611
         1        44        57       358.62827       149.87547
         1        44        58       355.41623        77.34992
         1        45        58       352.29254       138.96129
         1        46        58       348.87958       113.13957
         1        46        59        345.6848       126.65685
         1        46        60       347.18707        44.01696
         1        23        43        514.1981        61.91714
         1        23        44       509.28433       28.862402
         1        24        44        498.6289       150.65945
         1        24        45       484.24792        51.48982
         1        25        45         476.928       141.43604
         1        25        46        459.9136        143.2254
         1        25        47       456.46133       139.91168
         1        25        48        441.4616       122.99751
         1        26        48       439.68552        30.16901
         1        26        49       435.31808       142.10567
         1        26        50       419.96967       150.97253
         1        26        51        416.6786       144.59096
         1        26        52        411.3069       148.48726
         1        26        53       413.40353      118.830345
         1        25        53        406.1848       57.590324
         1        25        52       401.16968        86.34154
         1        24        52       399.97046       67.066345
         1        24        53        399.9055       145.29646
         1        24        54       398.17273       89.362076
         1        27        44        458.7271       48.703938
         1        27        45       456.02405       156.35732
         1        27        46       453.13422       81.198524
         1        28        46       446.62372          71.968
         1        28        47       438.22742       141.56854
         1        28        48       432.41626        99.24015
         1        29        48       426.48184       60.676704
         1        29        49       419.01703       136.47507
         1        29        50         417.876        143.2254
         1        29        51        414.1455      121.654366
         1        30        51       413.01758       31.512156
         1        30        52        410.1718       146.53911
         1        30        53        402.2567        133.8214
         1        30        54       398.36755       60.904034
         1        31        54        395.4756       109.24525
         1        31        55       392.85944       135.64664
         1        31        56        391.5817        100.5855
         1        63        49       380.35104       175.74686
         1        64        50        379.9172       170.46327
         1        64        51       379.59967       161.18349
         1        65        52        378.6547       157.95877
         1        65        53       376.14786       16.531637
         1        64        53       374.87482        82.66593
         1        65        53       370.46436        78.89243
         1        66        48       390.13483       170.06276
         1        65        48       388.54193        82.30674
         1        65        49        380.8888       129.97734
         1        66        49         380.228       123.47345
         1        66        50       379.50464       139.91168
         1        66        51       379.24686       156.18893
         1        66        52        375.7971        159.2376
         1        66        53        374.4803         44.7663
         1        65        53        372.0473        74.98055
         1        59        49       406.91373      103.046165
         1        60        49       399.86896      109.879684
         1        60        50       398.29938       63.299026
         1        61        50       395.84308      118.151764
         1        61        51       392.01825       144.88225
         1        61        52       385.74237       29.036217
         1        62        52       380.75024       130.47345
         1        62        53        378.4095        152.0468
         1        62        54       373.67548       102.56089
         1        63        54       371.10123       55.019848
         1        63        55       367.71918       173.88899
         1        64        56       360.50055       210.79395
         1        65        57       358.00958        90.91169
         1        34        51       404.53018       117.52215
         1        34        52       398.50067       110.06858
         1        35        52        394.1955       48.068504
         1        35        53       390.80194        155.3605
         1        35        54       393.25934       61.347683
         1        36        54        393.6498      125.487885
         1        36        55       387.12192        67.00454
         1        37        55       379.75372        84.91934
         1        37        56       374.86465        166.5513
         1        37        57       369.08807       32.619762
         1        38        57       366.54538       103.74452
         1        37        57        364.1059      12.2458935
         1        37        58       361.52893       138.66905
         1        37        59        360.4168        61.10504
         1        38        59       360.07056        89.16199
         1        38        60       359.99023        189.7421
         1        38        61        359.1849       142.15912
         1        38        62       359.06888       143.65599
         1        38        63       354.22952        53.01696
         1        34        58        373.3232       113.53911
         1        35        59        369.0526       174.08366
         1        35        60       365.33624         44.8624
         1        36        60        363.8377         101.968
         1        36        61       360.12784       148.19595
         1        36        62       359.48935        90.61274
         1        37        62       357.27567        86.53457
         1        37        63       354.45172        82.74173
         1        38        63        353.7037      115.549286
         1        58        51       416.07407        45.87226
         1        57        51       397.35922       101.59101
         1        57        52       377.43378       133.28427
         1        57        53       371.76874       145.56854
         1        57        54       360.88998        9.115262
         1        58        54       359.35916       107.74452
         1        57        54       357.43408       28.973816
         1        57        55        355.1548        140.6172
         1        57        56        357.5286       168.48022
         1        57        57        353.4903        72.93883
         1        56        57       345.64142        87.25713
         1        56        58       339.91757       134.94113
         1        56        59       336.59857       139.91168
         1        56        60       331.97452       133.28427
         1        56        61       327.22513        148.7331
         1        56        62        322.2658        140.3259
         1        56        63       319.23352         68.7663
         1        55        63       317.31607       89.500725
         1        55        64       316.89175        68.59252
         1        61        54       378.73184      103.816635
         1        61        55       374.30142       151.92389
         1        61        56       369.08044       154.53365
         1        62        57        363.2747       135.52214
         1        62        58       359.19955        143.2254
         1        62        59        354.6439        128.3137
         1        62        60       351.60873         71.2618
         1        61        60       350.08115       63.679325
         1        61        61       343.11697       129.97057
         1        61        62        339.3191       71.742676
         1        62        62       336.34793        55.74452
         1        61        62       335.53824        26.63067
         1        61        63       330.14587        140.6172
         1        61        64       321.18985        72.98752
         1        48        63       339.28424       42.603436
         1        48        64         337.747       41.590324
         1        49        64       331.67023       135.18637
         1        49        65       324.83325       133.16135
         1        49        66        320.2151       138.30122
         1        50        67       319.39633       155.30646
         1        51        67         318.854       110.37519
         1        51        68       317.76315       46.519257
         1        52        68       317.33173       20.724669
         1        52        67        317.2734       35.952034
         1        52        68       315.09424       119.81572
         1        53        68        312.3163       156.27399
         1        53        67       312.90387       126.65685
         1        53        66          316.48       190.93416
         1        54        66        312.2834       62.090916
         1        54        67       310.28256       33.036175
         1         9        49       467.78308       125.23557
         1        10        50       462.94983       198.10765
         1        11        51       457.36612        191.7645
         1        12        52       448.63284        186.4044
         1        12        53       440.29657       27.328465
         1        13        53        439.4455       145.97318
         1        13        54       438.28598       53.832966
         1        14        54       438.44202       119.34575
         1        14        55       437.23874        85.68285
         1        15        55        431.1966       120.75772
         1        15        56        422.3311        44.69307
         1        16        56       419.95932       158.13708
         1        17        56       419.59982       53.655243
         1        17        57       418.25168       113.45241
         1        18        57       413.62793       124.01058
         1        18        58       408.45917       51.933468
         1        19        58        404.1574       117.93153
         1        19        59       400.51007        76.90403
         1        20        59        400.0212       92.676704
         1        20        60       397.77753       160.20816
         1        20        61       397.37357       19.891838
         1        21        61       397.57486       21.318111
         1        20        61       398.55957       57.301327
         1        21        61       398.27994       149.98114
         1        21        62        398.6659       27.205547
         1        22        62       399.20786       145.29646
         1        23        62        392.6932       148.73213
         1        24        62       387.10046       30.169962
         1        24        63       382.12177       136.94566
         1        25        63       379.98935        87.54676
         1        25        64       378.38486        80.66139
         1        26        64       378.44318       163.70811
         1        26        65       378.07843       50.843185
         1        27        65        377.8394       11.661258
         1        26        65        377.8318        18.96616
         1        27        65       377.61005       116.51733
         1        27        66       376.56293       50.033974
         1        28        66       373.17105       163.52187
         1        29        66       368.09842        43.22086
         1        29        67        363.1476       102.07561
         1        30        67        359.9165       137.54837
         1        31        67       359.34207       141.56854
         1        32        67        359.2795        78.21159
         1        32        68         359.383       87.239204
         1        33        68        359.4748       142.27501
         1        34        68         358.368       143.63962
         1        35        68       357.50723        46.53457
         1        35        69        356.2589       103.73246
         1        36        69        348.1828       138.66905
         1        37        69       340.02975       138.19817
         1        38        70       338.47348       166.33589
         1        39        70       338.07394        76.69592
         1        39        71       338.05835       99.331696
         1        40        71       336.53998       140.32535
         1        41        71       332.24246        32.24473
         1        28        68        381.3947       125.27409
         1        29        68        380.7728       139.91168
         1        30        68       380.64954       141.03236
         1        31        68        380.0441       137.91551
         1        32        69       373.34485       192.00714
         1        33        70       373.08215       164.64542
         1        33        71        369.8362        55.71324
         1        34        71        366.8381        103.7894
         1        34        72        365.9769        225.2392
         1        35        72       360.52557       138.25484
         1        36        72        360.1955       136.59798
         1        37        72        359.0371       129.97057
         1        38        72       353.39417        143.3402
         1        39        72         349.331        51.22086
         1        39        73       345.21094        77.10179
         1        39        72       340.10672       21.782072
         1        40        72       335.94058        190.4021
         1        41        71        331.5235        43.59798
         1        39        61        360.0901      113.833885
         1        39        62       359.13095       131.09029
         1        39        63       355.62604       52.036217
         1        40        63       355.86877       146.83136
         1        41        63        351.8285       153.29646
         1        42        63       342.60745        72.19142
         1        42        64       339.08224       132.70302
         1        43        64       336.99518       59.382214
         1        43        65       335.04913       120.26161
         1        44        65       332.60416       139.91168
         1        45        65       331.84674       204.48022
         1        46        65        327.8044       146.00293
         1        47        65       325.30286        31.41165
         1        47        66        320.0259       145.76706
         1        48        66       319.49994       86.576195
         1        48        67       319.13483        73.63196
         1        49        67        318.4773       156.13928
         1        50        68        316.7571       164.87047
         1        50        69       315.29907       60.661392
         1        51        69        314.1554        94.03907
         1        51        70        312.1257       216.15405
         1        51        71       308.35385        93.55323
         1        52        71        302.5643       29.265013
         1        39        68       366.30917       39.181564
         1        40        68        359.7747       119.34575
         1        40        69       350.08746        134.8182
         1        40        70       337.61777       139.91168
         1        40        71        337.1108       159.65018
         1        41        71       332.35947       36.265015
         1        53        83       340.01865       75.313705
         1        52        82        341.2429       133.67125
         1        51        82       342.10464       141.44658
         1        50        82       341.88797       141.56854
         1        49        82       341.15192       50.499084
         1        49        81       341.31647       153.29486
         1        48        81       343.86502       129.97057
         1        47        81        343.1919       106.19757
         1        47        80        344.7247        65.16199
         1        46        80       346.35938      101.382286
         1        46        79       347.99872        93.73755
         1        45        79       346.00955        94.27028
         1        45        80        342.9806        50.24938
         1        34        75       364.27176       126.30353
         1        35        75        363.9706       139.91168
         1        36        75       362.37427       133.28427
         1        37        75        362.5709        28.92732
         1        37        76       362.89972       148.48726
         1        37        77        362.0188       137.13512
         1        37        78       361.15247       135.37207
         1        38        78       360.79797       163.52187
         1        39        78        357.2933       33.362995
         1        39        79        354.8947        147.4137
         1        40        79       354.04654        27.70614
         1        40        80        353.5787       63.219944
         1        41        75       360.91388       131.45299
         1        40        75        360.7233        39.60123
         1        40        76       360.45566       104.90403
         1        41        76        359.9085        41.92637
         1        41        77       358.78015       144.88225
         1        41        78       356.80142       160.46101
         1        41        79        356.0878       46.761898
         1        42        79        355.1999        81.42155
         1        41        79       354.70526       96.593254
         1        41        80       354.48767       54.624165
         1        40        80        354.4438        74.93893
         1        43        75        360.5047       65.917145
         1        43        76       360.20544        99.77409
         1        44        76       357.81403       62.090916
         1        44        77       354.07782       167.52187
         1        44        78       349.34155       163.52187
         1        44        79        346.7385        43.69083
         1        45        79        344.4616      110.181206
         1        45        80       342.34558       37.673813
         1        52        73       304.40717        39.60816
         1        51        73       306.92603       114.19757
         1        51        72       310.20547       32.341534
         1        50        72       312.15146        43.28657
         1        50        73       312.55945       143.76253
         1        50        74       315.11795        39.13668
         1        27        68        386.5054       39.771755
         1        26        68       390.47864       75.046165
         1        26        67       394.43045        74.27047
         1        25        67       394.37354        69.98982
         1        26        68       392.72528        34.69628
         1        26        68       391.07565       111.83103
         1        26        69       386.80594       153.80573
         1        27        70        382.3629       177.00494
         1        28        70       381.40997       28.635073
         1        28        71        381.4977       133.22993
         1        29        71       381.41275        87.54676
         1        29        72       381.16562         75.9751
         1        30        72       379.02362       158.50487
         1        31        73       371.81802       181.92583
         1        32        74       364.12396       140.52214
         1        32        75        358.4449        60.31877
         1        31        75        358.4449       91.164604
         1        31        76        358.4449       61.257397
         1        32        76        358.4449        80.43406
         1        32        77       358.78293       159.67102
         1        32        78        358.2659        32.67161
         1        33        78       355.69223      113.848274
         1        33        79       350.31604       119.99656
         1        34        79        344.6877       147.43153
         1        35        80        340.2962       184.53568
         1        36        81        339.3687       164.27539
         1        37        81       339.11063        42.77721
         1        37        82         338.813        131.0878
         1        38        82       337.57687        65.18597
         1        27        74        363.9066        90.29675
         1        27        75       360.38266       182.84033
         1        28        76       359.67856       211.48022
         1        29        77       359.18375       148.92168
         1        30        77        358.4449        90.61783
         1        30        78        358.4449        75.24718
         1        31        78        358.4449        155.2376
         1        32        78       358.79706       30.291927
         1        32        79        356.3107       121.33971
         1        33        79       349.39954       149.85281
         1        34        79       345.09973       53.584175
         1        34        80       342.41705       104.01673
         1        35        80         340.464       98.132545
         1        35        81       340.41476        83.16814
         1        36        81        340.0464       126.29485
         1        36        82       339.82437       46.469646
         1        37        82       338.74164       183.05894
         1        59       114       317.89526       56.661392
         1        59       113        314.1802       132.80159
         1        58       113       309.52753       53.347683
         1        58       112         306.445       103.54676
         1        57       112       300.79907      121.229935
         1        57       111       299.99005       45.897884
         1        56       111       299.48337        162.1269
         1        55       110       298.66345       180.04877
         1        54       109       297.82443       179.36249
         1        53       108       296.63892       164.75905
         1        53       107       296.15292        43.26249
         1        52       107        295.3656       126.18128
         1        52       106       293.04712       148.19595
         1        52       105       290.99545        62.57882
         1        53       105       289.81128       55.286472
         1        59       113        315.7896       54.075603
         1        59       112        311.2985       165.55675
         1        58       111       309.77512       150.57529
         1        58       110       303.03384       124.03204
         1        57       110       299.64044       30.085825
         1        57       109        299.0873       154.70045
         1        57       108       298.91492        75.99041