# CHD package for  MODFLOW-NWT, generated by Flopy.
       152
       152         0 # stress period 1
         1       351        55             0.0             0.0
         1       349        55             0.0             0.0
         1       348        55             0.0             0.0
         1       347        53             0.0             0.0
         1       347        51             0.0             0.0
         1       346        50             0.0             0.0
         1       345        48             0.0             0.0
         1       344        47             0.0             0.0
         1       344        45             0.0             0.0
         1       343        43             0.0             0.0
         1       342        42             0.0             0.0
         1       340        43             0.0             0.0
         1       339        44             0.0             0.0
         1       339        46             0.0             0.0
         1       339        48             0.0             0.0
         1       337        49             0.0             0.0
         1       336        47             0.0             0.0
         1       335        48             0.0             0.0
         1       334        49             0.0             0.0
         1       335        51             0.0             0.0
         1       336        50             0.0             0.0
         1       336        52             0.0             0.0
         1       337        53             0.0             0.0
         1       338        54             0.0             0.0
         1       340        54             0.0             0.0
         1       342        54             0.0             0.0
         1       344        53             0.0             0.0
         1       346        52             0.0             0.0
         1       347        53             0.0             0.0
         1       347        55             0.0             0.0
         1       345        58             0.0             0.0
         1       343        60             0.0             0.0
         1       342        61             0.0             0.0
         1       341        63             0.0             0.0
         1       340        65             0.0             0.0
         1       339        66             0.0             0.0
         1       339        68             0.0             0.0
         1       338        70             0.0             0.0
         1       338        72             0.0             0.0
         1       338        74             0.0             0.0
         1       338        76             0.0             0.0
         1       339        78             0.0             0.0
         1       339        80             0.0             0.0
         1       340        84             0.0             0.0
         1       341        86             0.0             0.0
         1       341        88             0.0             0.0
         1       343        90             0.0             0.0
         1       344        95             0.0             0.0
         1       345        96             0.0             0.0
         1       342        42             0.0             0.0
         1       345        96             0.0             0.0
         1       343        90             0.0             0.0
         1       344        92             0.0             0.0
         1       339        45             0.0             0.0
         1       337        48             0.0             0.0
         1       344        47             0.0             0.0
         1       345        49             0.0             0.0
         1       350        55             0.0             0.0
         1       344        59             0.0             0.0
         1       343        60             0.0             0.0
         1       342        62             0.0             0.0
         1       341        64             0.0             0.0
         1       340        66             0.0             0.0
         1       338        69             0.0             0.0
         1       339        71             0.0             0.0
         1       338        71             0.0             0.0
         1       338        73             0.0             0.0
         1       339        74             0.0             0.0
         1       338        75             0.0             0.0
         1       339        76             0.0             0.0
         1       338        77             0.0             0.0
         1       339        79             0.0             0.0
         1       339        81             0.0             0.0
         1       341        85             0.0             0.0
         1       341        87             0.0             0.0
         1       342        89             0.0             0.0
         2       351        55             0.0             0.0
         2       349        55             0.0             0.0
         2       348        55             0.0             0.0
         2       347        53             0.0             0.0
         2       347        51             0.0             0.0
         2       346        50             0.0             0.0
         2       345        48             0.0             0.0
         2       344        47             0.0             0.0
         2       344        45             0.0             0.0
         2       343        43             0.0             0.0
         2       342        42             0.0             0.0
         2       340        43             0.0             0.0
         2       339        44             0.0             0.0
         2       339        46             0.0             0.0
         2       339        48             0.0             0.0
         2       337        49             0.0             0.0
         2       336        47             0.0             0.0
         2       335        48             0.0             0.0
         2       334        49             0.0             0.0
         2       335        51             0.0             0.0
         2       336        50             0.0             0.0
         2       336        52             0.0             0.0
         2       337        53             0.0             0.0
         2       338        54             0.0             0.0
         2       340        54             0.0             0.0
         2       342        54             0.0             0.0
         2       344        53             0.0             0.0
         2       346        52             0.0             0.0
         2       347        53             0.0             0.0
         2       347        55             0.0             0.0
         2       345        58             0.0             0.0
         2       343        60             0.0             0.0
         2       342        61             0.0             0.0
         2       341        63             0.0             0.0
         2       340        65             0.0             0.0
         2       339        66             0.0             0.0
         2       339        68             0.0             0.0
         2       338        70             0.0             0.0
         2       338        72             0.0             0.0
         2       338        74             0.0             0.0
         2       338        76             0.0             0.0
         2       339        78             0.0             0.0
         2       339        80             0.0             0.0
         2       340        84             0.0             0.0
         2       341        86             0.0             0.0
         2       341        88             0.0             0.0
         2       343        90             0.0             0.0
         2       344        95             0.0             0.0
         2       345        96             0.0             0.0
         2       342        42             0.0             0.0
         2       345        96             0.0             0.0
         2       343        90             0.0             0.0
         2       344        92             0.0             0.0
         2       339        45             0.0             0.0
         2       337        48             0.0             0.0
         2       344        47             0.0             0.0
         2       345        49             0.0             0.0
         2       350        55             0.0             0.0
         2       344        59             0.0             0.0
         2       343        60             0.0             0.0
         2       342        62             0.0             0.0
         2       341        64             0.0             0.0
         2       340        66             0.0             0.0
         2       338        69             0.0             0.0
         2       339        71             0.0             0.0
         2       338        71             0.0             0.0
         2       338        73             0.0             0.0
         2       339        74             0.0             0.0
         2       338        75             0.0             0.0
         2       339        76             0.0             0.0
         2       338        77             0.0             0.0
         2       339        79             0.0             0.0
         2       339        81             0.0             0.0
         2       341        85             0.0             0.0
         2       341        87             0.0             0.0
         2       342        89             0.0             0.0
