# GHB package for  MODFLOW-NWT, generated by Flopy.
        70         0
        70         0 # stress period 1
         1       348        55        3.016236            10.0
         1       347        53       11.722095            10.0
         1       347        51       25.300468            10.0
         1       346        50       20.718754            10.0
         1       345        48        16.32283            10.0
         1       344        47       14.503852            10.0
         1       344        45       15.854029            10.0
         1       343        43        15.84844            10.0
         1       342        42       14.755328            10.0
         1       339        44       18.607407            10.0
         1       339        46       12.827049            10.0
         1       339        48       14.992455            10.0
         1       337        49       11.356645            10.0
         1       336        47        9.781231            10.0
         1       335        48       11.844145            10.0
         1       334        49       14.408378            10.0
         1       335        51        11.59712            10.0
         1       336        50       10.102767            10.0
         1       336        52       10.177814            10.0
         1       338        54       10.028723            10.0
         1       340        54        9.939609            10.0
         1       342        54        8.924262            10.0
         1       344        53       4.3971896            10.0
         1       346        52       13.421062            10.0
         1       347        53       11.722095            10.0
         1       347        55       2.9361768            10.0
         1       342        42       14.755328            10.0
         1       342        44       16.289757            10.0
         1       341        51        7.223443            10.0
         1       341        43       16.481852            10.0
         1       340        44       18.178051            10.0
         1       341        46       15.426138            10.0
         1       339        45        17.64159            10.0
         1       341        45       17.067757            10.0
         1       342        45       16.326445            10.0
         1       340        46       13.613062            10.0
         1       341        48        9.405416            10.0
         1       340        47       10.283063            10.0
         1       340        45        17.58557            10.0
         1       338        51       12.604217            10.0
         1       336        49        9.989828            10.0
         1       342        47       14.240685            10.0
         1       337        51       10.672185            10.0
         1       337        50       10.972218            10.0
         1       338        52       11.781831            10.0
         1       338        49       14.780329            10.0
         1       340        50        9.127075            10.0
         1       337        48       11.216867            10.0
         1       344        47       14.503852            10.0
         1       343        49       11.060108            10.0
         1       343        47       13.808722            10.0
         1       339        53       10.915394            10.0
         1       341        49        7.584242            10.0
         1       342        48       11.984903            10.0
         1       339        52       11.894457            10.0
         1       340        52       10.347919            10.0
         1       341        52        8.209929            10.0
         1       340        53       10.208531            10.0
         1       340        49        8.853575            10.0
         1       342        50       7.0092263            10.0
         1       344        50       11.693836            10.0
         1       343        51       6.5673833            10.0
         1       345        49       15.623541            10.0
         1       343        50        8.847696            10.0
         1       344        51        9.678474            10.0
         1       343        53       5.2229285            10.0
         1       344        52       7.0691237            10.0
         1       343       103        6.045804            10.0
         1       342       101       5.6059914            10.0
         1       341       102       7.1795883            10.0
